12
	Energy:       7.8057217
C          0.16660        0.07216       -0.08869
H          0.29334        0.15706        1.01189
O          1.44487        0.01381       -0.67639
C         -0.66513       -1.17814       -0.40490
H         -0.37628        0.99088       -0.41051
H         -0.83362       -1.25728       -1.50008
C         -0.00530       -2.43308        0.08871
H         -1.65417       -1.07721        0.09133
O          1.08140       -2.77914       -0.34660
H         -0.50387       -3.04960        0.82941
O          1.28883        0.30525       -1.95512
H          1.49390       -0.53897       -2.43335