16
	Energy:       4.9424625
C         -2.79966        0.48667        0.00038
C         -3.85905       -0.33277        0.00015
C         -3.78740       -1.81634        0.00013
C         -2.65390       -2.52981        0.00034
C          3.25134        0.33678        0.00501
C          3.28602       -0.99375        0.00471
H          3.98016        0.90273       -0.56612
H          2.49411        0.86376        0.57642
H          4.04334       -1.52068       -0.56667
H          2.55728       -1.55973        0.57587
H         -2.95512        1.56078        0.00036
H         -1.77906        0.12536        0.00058
H         -4.84826        0.11505       -0.00004
H         -4.72879       -2.35746       -0.00007
H         -1.67293       -2.07176        0.00054
H         -2.70508       -3.61390        0.00030
