25
-4.2427597890791174e+02 frame 37   xyz file generated by TeraChem
     C    -0.4346628054   -0.5614260069    1.0205695615
     C     0.9418864888   -0.2815714447    1.1430015734
     C     1.5644864809    0.5775602838    0.2416025496
     C     0.8446347915    1.1793628330   -0.7969030491
     C    -0.5438738897    0.9159644589   -0.9525502937
     C    -1.2078738477    0.0206276823   -0.0366549346
     C    -2.6844004514   -0.2135593877   -0.1411721783
     C    -3.1784901963   -0.7957792572   -1.4801434025
     C    -2.8037222727   -2.2601658177   -1.7316863892
     C    -1.3215403070   -2.5208518740   -1.8807361431
     C    -0.6366225619   -3.4414550602   -1.1834234969
     H    -0.9146408676   -1.2258145881    1.7135082956
     H     1.5077928382   -0.7348159296    1.9353112128
     H     2.6138953228    0.7868904121    0.3445890002
     H     1.3385291852    1.8458328715   -1.4788042995
     H    -1.1047127847    1.4088421177   -1.7229685124
     H    -3.0065201122   -0.8628731961    0.6672982209
     H    -3.1915251117    0.7408324894    0.0108032252
     H    -4.2597193610   -0.7137864770   -1.4952503120
     H    -2.8181456531   -0.1823802870   -2.3017580769
     H    -3.2009133886   -2.8782791447   -0.9300895817
     H    -3.2921286884   -2.5832989098   -2.6417793254
     H    -0.8011001065   -1.9228460831   -2.6107491083
     H     0.4160477884   -3.5940645106   -1.3364965152
     H    -1.1141104898   -4.0648651744   -0.4472980204
