9
-17.83441455231514
C        0.119484      -0.186326       1.248877
C       -0.051057       0.974246       0.258916
H        0.988814      -0.811909       1.015034
H       -0.794980       0.725809      -0.509841
H        0.894910       1.192182      -0.254899
O       -0.513918       2.129259       0.975210
H        0.092914       2.861204       0.800381
H        0.266094       0.273323       2.228964
H       -0.768712      -0.823587       1.298139
9
-17.849317975749727
C        0.111616      -0.170562       1.248729
C       -0.062513       0.984022       0.250176
H        0.980500      -0.795804       1.013116
H       -0.808953       0.729199      -0.515175
H        0.882691       1.196993      -0.265645
O       -0.523111       2.139412       0.955150
H        0.084068       2.868135       0.773812
H        0.255846       0.289439       2.227264
H       -0.774773      -0.809561       1.304958
9
-17.871391380147543
C        0.103883      -0.163157       1.254979
C       -0.075834       0.976987       0.243612
H        0.975567      -0.788573       1.030616
H       -0.820982       0.709800      -0.518334
H        0.867208       1.188357      -0.277536
O       -0.543172       2.143997       0.936545
H        0.061365       2.873044       0.744150
H        0.248246       0.309464       2.228936
H       -0.780025      -0.805214       1.318112
