9
-0.9718506118806545
C        0.033324      -0.177206       1.202858
C       -0.155419       0.925526       0.163261
H        1.030156      -0.633211       1.240535
H       -1.048834       0.831019      -0.463340
H        0.734603       1.236882      -0.373869
O       -0.515004       2.091648       1.058782
H        0.183850       2.761780       1.006619
H       -0.076300       0.613672       1.983562
H       -0.789185      -0.887399       1.263731
9
-2.121989970371942
C        0.007410      -0.114876       1.247602
C       -0.200127       0.952669       0.151038
H        1.014048      -0.530339       1.311290
H       -1.108180       0.889735      -0.454894
H        0.679467       1.240419      -0.419995
O       -0.542451       2.127823       0.993154
H        0.169768       2.779086       0.891127
H       -0.101605       0.655334       1.995469
H       -0.796609      -0.847522       1.354500
