16
-45.75466142949881
C        0.018565      -1.505102       0.071755
C       -1.254726      -0.702912      -0.048283
C       -1.285511       0.633242      -0.085278
C       -0.048111       1.496966      -0.044220
H       -2.187944      -1.262829      -0.104375
H       -0.121338      -2.316354       0.799873
H        0.226636      -2.006431      -0.887349
H       -0.137620       2.309803      -0.778494
H        0.019570       1.995007       0.936447
H       -2.244815       1.145933      -0.151545
C        1.216014      -0.631689       0.479480
C        1.229452       0.684821      -0.310339
H        1.148348      -0.405323       1.552809
H        2.153272      -1.182597       0.331990
H        1.295645       0.458374      -1.383898
H        2.115916       1.280139      -0.058569
16
-45.754759598348755
C        0.018468      -1.505105       0.071568
C       -1.254771      -0.702834      -0.048582
C       -1.285462       0.633332      -0.085430
C       -0.048009       1.496987      -0.044066
H       -2.188018      -1.262696      -0.104884
H       -0.121592      -2.316431       0.799572
H        0.226663      -2.006335      -0.887554
H       -0.137346       2.309932      -0.778244
H        0.019549       1.994893       0.936681
H       -2.244725       1.146088      -0.151793
C        1.215907      -0.631805       0.479561
C        1.229547       0.684800      -0.310094
H        1.148085      -0.405550       1.552893
H        2.153160      -1.182749       0.332157
H        1.295893       0.458486      -1.383669
H        2.116006       1.280031      -0.058114
